Version 4
SHEET 1 1412 1544
WIRE -64 -160 -368 -160
WIRE 320 -160 -64 -160
WIRE 528 -160 320 -160
WIRE 640 -160 528 -160
WIRE -64 -80 -64 -160
WIRE 640 -80 640 -160
WIRE -64 80 -64 0
WIRE 64 80 -64 80
WIRE 320 80 320 -160
WIRE 320 80 288 80
WIRE -64 96 -64 80
WIRE 64 144 -64 144
WIRE 640 144 640 0
WIRE 640 144 288 144
WIRE 848 144 640 144
WIRE 64 208 -144 208
WIRE 432 208 288 208
WIRE 640 208 640 144
WIRE -368 272 -368 -160
WIRE 64 272 -368 272
WIRE 320 272 288 272
WIRE -64 352 -64 144
WIRE 432 352 432 208
WIRE 432 352 -64 352
WIRE 640 352 640 288
WIRE 640 352 432 352
WIRE 320 384 320 272
WIRE 640 384 640 352
WIRE 848 384 848 144
WIRE 848 400 848 384
WIRE 320 528 320 448
WIRE 640 528 640 448
WIRE 640 528 320 528
WIRE 848 544 848 464
WIRE 848 544 784 544
WIRE 320 576 320 528
WIRE 528 624 528 -160
WIRE 528 768 528 704
WIRE 656 768 528 768
WIRE 848 768 848 544
WIRE 848 768 720 768
WIRE 288 784 256 784
WIRE 528 832 528 768
WIRE 288 880 288 784
WIRE 288 880 208 880
WIRE 320 880 288 880
WIRE 464 880 400 880
WIRE 208 928 208 880
WIRE 208 1056 208 1008
WIRE 528 1056 528 928
WIRE 528 1056 208 1056
WIRE 528 1072 528 1056
FLAG 320 576 0
FLAG -64 96 0
FLAG 528 1072 0
FLAG 256 784 WDI
IOPIN 256 784 In
FLAG -144 208 RESET
IOPIN -144 208 In
FLAG 784 544 WDP
IOPIN 784 544 In
SYMBOL Misc\\NE555 176 176 R0
SYMATTR InstName U1
SYMBOL cap 304 384 R0
SYMATTR InstName C1
SYMATTR Value 100n
SYMBOL res 624 -96 R0
SYMATTR InstName R1
SYMATTR Value 56k
SYMBOL cap 624 384 R0
SYMATTR InstName C2
SYMATTR Value 22µF
SYMBOL voltage -64 -96 R0
WINDOW 123 0 0 Left 2
WINDOW 39 0 0 Left 2
SYMATTR InstName V1
SYMATTR Value 3.3
SYMBOL voltage 208 912 R0
WINDOW 3 24 96 Invisible 2
WINDOW 123 0 0 Left 2
WINDOW 39 0 0 Left 2
SYMATTR Value PULSE(0 3.3 1 0 0 0.1 0.9 100)
SYMATTR InstName V2
SYMBOL npn 464 832 R0
SYMATTR InstName Q1
SYMBOL res 512 608 R0
SYMATTR InstName R5
SYMATTR Value 10k
SYMBOL res 416 864 R90
WINDOW 0 0 56 VBottom 2
WINDOW 3 32 56 VTop 2
SYMATTR InstName R7
SYMATTR Value 1k
SYMBOL res 624 192 R0
SYMATTR InstName R2
SYMATTR Value 4.7k
SYMBOL res 832 368 R0
SYMATTR InstName R3
SYMATTR Value 560
SYMBOL diode 720 752 R90
WINDOW 0 0 32 VBottom 2
WINDOW 3 32 32 VTop 2
SYMATTR InstName D1
SYMATTR Value 1N4148
TEXT -160 504 Left 2 !.tran 10s
TEXT 752 -96 Left 2 ;Tcharge = 0.693 x (R1+R2) x C  (Watchdog timeout)\n \nTcharge = 0.693 x 60.7 x 22  = 925ms\n \n \nTdischarge = 0.693 x R2 x C\n \nTdischarge = 0.693 x 4.7 x 22  = 72ms
TEXT -104 728 Left 2 ;Keep Tperiod < 0.9 to avoid RESET
